Version 4.1
SHEET 1 880 680
WIRE 336 -112 336 -176
WIRE 336 -96 336 -112
WIRE 336 64 336 -16
WIRE 336 80 336 64
WIRE 80 128 32 128
WIRE 240 128 160 128
WIRE 272 128 240 128
WIRE 32 144 32 128
WIRE 336 240 336 176
WIRE 32 272 32 224
FLAG 32 272 0
FLAG 336 240 0
FLAG 416 -176 0
FLAG 240 128 VBE
FLAG 336 64 VCE
FLAG 336 -112 VL
SYMBOL voltage 32 128 R0
WINDOW 123 0 0 Left 0
WINDOW 39 0 0 Left 0
SYMATTR InstName V1
SYMATTR Value 5V
SYMBOL res 176 112 R90
WINDOW 0 0 56 VBottom 2
WINDOW 3 32 56 VTop 2
SYMATTR InstName R1
SYMATTR Value 47.5k
SYMBOL npn 272 80 R0
SYMATTR InstName Q1
SYMBOL res 320 -112 R0
SYMATTR InstName R2
SYMATTR Value 10
SYMBOL voltage 320 -176 R270
WINDOW 0 32 56 VTop 2
WINDOW 3 -32 56 VBottom 2
WINDOW 123 0 0 Left 0
WINDOW 39 0 0 Left 0
SYMATTR InstName V2
SYMATTR Value 12
TEXT 0 296 Left 2 !.tran 1
