Version 4.1
SHEET 1 880 680
WIRE 288 -160 272 -160
WIRE 272 -64 272 -160
WIRE 272 32 272 16
WIRE 272 48 272 32
WIRE 96 96 16 96
WIRE 208 96 176 96
WIRE 16 128 16 96
WIRE 16 240 16 208
WIRE 272 240 272 144
FLAG 272 240 0
FLAG 368 -160 0
FLAG 16 240 0
FLAG 272 32 VCE
FLAG 208 96 VBE
SYMBOL voltage 16 112 R0
WINDOW 123 0 0 Left 0
WINDOW 39 0 0 Left 0
SYMATTR InstName V1
SYMATTR Value 5
SYMBOL res 192 80 R90
WINDOW 0 0 56 VBottom 2
WINDOW 3 32 56 VTop 2
SYMATTR InstName R1
SYMATTR Value 1000
SYMBOL npn 208 48 R0
SYMATTR InstName Q1
SYMBOL res 256 -80 R0
SYMATTR InstName R2
SYMATTR Value 3000
SYMBOL voltage 272 -160 R270
WINDOW 0 32 56 VTop 2
WINDOW 3 -32 56 VBottom 2
WINDOW 123 0 0 Left 0
WINDOW 39 0 0 Left 0
SYMATTR InstName V2
SYMATTR Value 20
TEXT -16 264 Left 2 !.tran 1
