Version 4.1
SHEET 1 880 680
WIRE 384 -128 384 -160
WIRE 384 -16 384 -48
WIRE 384 -16 368 -16
WIRE 368 48 368 -16
WIRE 368 96 368 48
WIRE 96 144 16 144
WIRE 240 144 176 144
WIRE 304 144 240 144
WIRE 16 160 16 144
WIRE 368 256 368 192
FLAG 464 -160 0
FLAG 16 240 0
FLAG 368 256 0
FLAG 240 144 VBE
FLAG 368 48 VCE
SYMBOL voltage 16 144 R0
WINDOW 123 0 0 Left 0
WINDOW 39 0 0 Left 0
SYMATTR InstName V1
SYMATTR Value 5v
SYMBOL res 368 -144 R0
SYMATTR InstName R1
SYMATTR Value 18.75
SYMBOL res 192 128 R90
WINDOW 0 0 56 VBottom 2
WINDOW 3 32 56 VTop 2
SYMATTR InstName R2
SYMATTR Value 270
SYMBOL npn 304 96 R0
SYMATTR InstName Q1
SYMBOL voltage 368 -160 R270
WINDOW 0 32 56 VTop 2
WINDOW 3 -32 56 VBottom 2
WINDOW 123 0 0 Left 0
WINDOW 39 0 0 Left 0
SYMATTR InstName V2
SYMATTR Value 15.2
TEXT -16 280 Left 2 !.tran 1
