Version 4.1
SHEET 1 880 680
WIRE 368 -144 368 -240
WIRE 368 -16 368 -64
WIRE 368 16 368 -16
WIRE 160 64 64 64
WIRE 272 64 240 64
WIRE 304 64 272 64
WIRE 368 144 368 112
WIRE 368 208 368 144
FLAG 448 -240 0
FLAG 64 144 0
FLAG 368 208 0
FLAG 272 64 Vb
FLAG 368 -16 VC
FLAG 368 144 Ve
SYMBOL voltage 64 48 R0
WINDOW 123 0 0 Left 0
WINDOW 39 0 0 Left 0
SYMATTR InstName V1
SYMATTR Value 5V
SYMBOL res 256 48 R90
WINDOW 0 0 56 VBottom 2
WINDOW 3 32 56 VTop 2
SYMATTR InstName R1
SYMATTR Value 1000
SYMBOL npn 304 16 R0
SYMATTR InstName Q1
SYMBOL res 352 -160 R0
SYMATTR InstName R2
SYMATTR Value 200
SYMBOL voltage 352 -240 R270
WINDOW 0 32 56 VTop 2
WINDOW 3 -32 56 VBottom 2
WINDOW 123 0 0 Left 0
WINDOW 39 0 0 Left 0
SYMATTR InstName V2
SYMATTR Value 15V
TEXT 24 232 Left 2 !.tran 1
