Version 4.1
SHEET 1 880 680
WIRE 368 -176 368 -240
WIRE 368 -144 368 -176
WIRE 368 0 368 -64
WIRE 368 32 368 0
WIRE 112 80 32 80
WIRE 272 80 192 80
WIRE 304 80 272 80
WIRE 32 128 32 80
WIRE 368 208 368 128
WIRE 32 256 32 208
FLAG 368 208 0
FLAG 32 256 0
FLAG 448 -240 0
FLAG 272 80 VBE
FLAG 368 0 VCE
FLAG 368 -176 VL
SYMBOL voltage 32 112 R0
WINDOW 3 24 44 Left 2
WINDOW 123 0 0 Left 0
WINDOW 39 0 0 Left 0
SYMATTR Value 5
SYMATTR InstName V1
SYMBOL res 208 64 R90
WINDOW 0 0 56 VBottom 2
WINDOW 3 32 56 VTop 2
SYMATTR InstName R1
SYMATTR Value 20k
SYMBOL npn 304 32 R0
SYMATTR InstName Q1
SYMBOL res 352 -160 R0
SYMATTR InstName R2
SYMATTR Value 1k
SYMBOL voltage 352 -240 R270
WINDOW 0 32 56 VTop 2
WINDOW 3 -32 56 VBottom 2
WINDOW 123 0 0 Left 0
WINDOW 39 0 0 Left 0
SYMATTR InstName V2
SYMATTR Value 12
TEXT 0 280 Left 2 !.tran 1
